@<TRIPOS>MOLECULE
*****
   45    47     1     0     0
SMALL
gas


@<TRIPOS>ATOM
      1 C           -0.9670    -1.6690     1.6770 CT         1 UNL      -0.053169
      2 C1           0.0060    -0.8470     2.5120 CT         1 UNL      -0.051536
      3 C2           1.3940    -0.8180     1.8740 CT         1 UNL      -0.034436
      4 C3           1.4010    -0.4090     0.3710 CT         1 UNL       0.025967
      5 C4           0.2760    -1.0850    -0.4340 CT         1 UNL      -0.034436
      6 C5          -1.0760    -1.0820     0.2780 CT         1 UNL      -0.051536
      7 N            2.7340    -0.6120    -0.2840 N          1 UNL      -0.290366
      8 C6           3.2390     0.3500    -1.2560 CT         1 UNL       0.039785
      9 C7           2.4550     1.4960    -1.8480 CA         1 UNL      -0.030601
     10 C8           2.6810     2.7940    -1.3540 CA         1 UNL      -0.057449
     11 C9           2.3140     3.9150    -2.0970 CA         1 UNL      -0.061935
     12 C10          1.6850     3.7560    -3.3290 CA         1 UNL      -0.062247
     13 C11          1.3890     2.4760    -3.7980 CA         1 UNL      -0.061935
     14 C12          1.7650     1.3490    -3.0600 CA         1 UNL      -0.057449
     15 C13          3.3920    -1.8540    -0.1230 C          1 UNL       0.246020
     16 O            2.8130    -2.8250     0.3690 O          1 UNL      -0.271683
     17 C14          4.8210    -2.1190    -0.5500 CA         1 UNL       0.037362
     18 C15          5.8160    -1.1570    -0.7780 CA         1 UNL      -0.048192
     19 C16          7.0940    -1.5150    -1.2450 CA         1 UNL      -0.042742
     20 C17          7.4250    -2.8550    -1.3920 CA         1 UNL       0.040597
     21 C18          6.4970    -3.8360    -1.0710 CA         1 UNL      -0.042742
     22 C19          5.2050    -3.4670    -0.6630 CA         1 UNL      -0.048192
     23 Cl           8.9930    -3.2940    -1.9430 Cl         1 UNL      -0.084344
     24 H           -1.9520    -1.6810     2.1570 HC         1 UNL       0.026655
     25 H1          -0.6270    -2.7120     1.6200 HC         1 UNL       0.026655
     26 H2           0.0750    -1.2800     3.5190 HC         1 UNL       0.026722
     27 H3          -0.3730     0.1740     2.6300 HC         1 UNL       0.026722
     28 H4           1.8100    -1.8150     2.0330 HC         1 UNL       0.028556
     29 H5           2.0450    -0.1410     2.4410 HC         1 UNL       0.028556
     30 H6           1.2090     0.6720     0.3730 H1         1 UNL       0.050623
     31 H7           0.5450    -2.1220    -0.6650 HC         1 UNL       0.028556
     32 H8           0.1610    -0.5810    -1.4000 HC         1 UNL       0.028556
     33 H9          -1.8000    -1.6590    -0.3080 HC         1 UNL       0.026722
     34 H10         -1.4620    -0.0580     0.3420 HC         1 UNL       0.026722
     35 H11          3.6590    -0.2140    -2.0990 H1         1 UNL       0.052055
     36 H12          4.0670     0.8410    -0.7450 H1         1 UNL       0.052055
     37 H13          3.2340     2.9390    -0.4280 HA         1 UNL       0.062621
     38 H14          2.5660     4.9100    -1.7380 HA         1 UNL       0.062280
     39 H15          1.4460     4.6290    -3.9310 HA         1 UNL       0.062269
     40 H16          0.9100     2.3580    -4.7670 HA         1 UNL       0.062280
     41 H17          1.5960     0.3600    -3.4840 HA         1 UNL       0.062621
     42 H18          5.6720    -0.1020    -0.5980 HA         1 UNL       0.063149
     43 H19          7.8200    -0.7390    -1.4750 HA         1 UNL       0.063865
     44 H20          6.7590    -4.8890    -1.1350 HA         1 UNL       0.063865
     45 H21          4.5000    -4.2580    -0.4170 HA         1 UNL       0.063149
@<TRIPOS>BOND
     1     1     2 1   
     2     2     3 1   
     3     3     4 1   
     4     4     5 1   
     5     5     6 1   
     6     1     6 1   
     7     4     7 1   
     8     7     8 1   
     9     8     9 1   
    10     9    10 1   
    11    10    11 2   
    12    11    12 1   
    13    12    13 2   
    14    13    14 1   
    15     9    14 2   
    16     7    15 1   
    17    15    16 2   
    18    15    17 1   
    19    17    18 1   
    20    18    19 2   
    21    19    20 1   
    22    20    21 2   
    23    21    22 1   
    24    17    22 2   
    25    20    23 1   
    26     1    24 1   
    27     1    25 1   
    28     2    26 1   
    29     2    27 1   
    30     3    28 1   
    31     3    29 1   
    32     4    30 1   
    33     5    31 1   
    34     5    32 1   
    35     6    33 1   
    36     6    34 1   
    37     8    35 1   
    38     8    36 1   
    39    10    37 1   
    40    11    38 1   
    41    12    39 1   
    42    13    40 1   
    43    14    41 1   
    44    18    42 1   
    45    19    43 1   
    46    21    44 1   
    47    22    45 1   
@<TRIPOS>SUBSTRUCTURE
     1 UNL         1 TEMP              0 ****  ****    0 ROOT
