@<TRIPOS>MOLECULE
*****
 45 47 0 0 0
SMALL
GASTEIGER

@<TRIPOS>ATOM
      1 C          -0.9668   -1.6695    1.6774 C.3     1  UNL1       -0.0529
      2 C           0.0058   -0.8473    2.5122 C.3     1  UNL1       -0.0514
      3 C           1.3940   -0.8177    1.8742 C.3     1  UNL1       -0.0343
      4 C           1.4014   -0.4086    0.3711 C.3     1  UNL1        0.0267
      5 C           0.2756   -1.0854   -0.4341 C.3     1  UNL1       -0.0343
      6 C          -1.0759   -1.0824    0.2782 C.3     1  UNL1       -0.0514
      7 N           2.7342   -0.6118   -0.2839 N.am    1  UNL1       -0.2902
      8 C           3.2393    0.3502   -1.2562 C.3     1  UNL1        0.0403
      9 C           2.4546    1.4961   -1.8482 C.ar    1  UNL1       -0.0301
     10 C           2.6807    2.7936   -1.3539 C.ar    1  UNL1       -0.0571
     11 C           2.3138    3.9152   -2.0970 C.ar    1  UNL1       -0.0615
     12 C           1.6853    3.7561   -3.3285 C.ar    1  UNL1       -0.0617
     13 C           1.3886    2.4764   -3.7976 C.ar    1  UNL1       -0.0615
     14 C           1.7653    1.3486   -3.0603 C.ar    1  UNL1       -0.0571
     15 C           3.3918   -1.8539   -0.1234 C.2     1  UNL1        0.2471
     16 O           2.8128   -2.8245    0.3691 O.2     1  UNL1       -0.2700
     17 C           4.8211   -2.1185   -0.5504 C.ar    1  UNL1        0.0370
     18 C           5.8165   -1.1574   -0.7784 C.ar    1  UNL1       -0.0483
     19 C           7.0937   -1.5153   -1.2450 C.ar    1  UNL1       -0.0427
     20 C           7.4253   -2.8554   -1.3917 C.ar    1  UNL1        0.0410
     21 C           6.4965   -3.8361   -1.0710 C.ar    1  UNL1       -0.0427
     22 C           5.2053   -3.4673   -0.6635 C.ar    1  UNL1       -0.0483
     23 CL          8.9926   -3.2939   -1.9429 Cl      1  UNL1       -0.0835
     24 H          -1.9521   -1.6811    2.1570 H       1  UNL1        0.0265
     25 H          -0.6275   -2.7122    1.6196 H       1  UNL1        0.0265
     26 H           0.0751   -1.2796    3.5186 H       1  UNL1        0.0266
     27 H          -0.3733    0.1739    2.6302 H       1  UNL1        0.0266
     28 H           1.8101   -1.8145    2.0331 H       1  UNL1        0.0283
     29 H           2.0451   -0.1412    2.4406 H       1  UNL1        0.0283
     30 H           1.2087    0.6722    0.3735 H       1  UNL1        0.0501
     31 H           0.5447   -2.1223   -0.6648 H       1  UNL1        0.0283
     32 H           0.1613   -0.5807   -1.4003 H       1  UNL1        0.0283
     33 H          -1.8005   -1.6593   -0.3078 H       1  UNL1        0.0266
     34 H          -1.4620   -0.0575    0.3415 H       1  UNL1        0.0266
     35 H           3.6595   -0.2138   -2.0989 H       1  UNL1        0.0514
     36 H           4.0670    0.8408   -0.7449 H       1  UNL1        0.0514
     37 H           3.2337    2.9391   -0.4277 H       1  UNL1        0.0621
     38 H           2.5658    4.9100   -1.7376 H       1  UNL1        0.0618
     39 H           1.4462    4.6287   -3.9314 H       1  UNL1        0.0618
     40 H           0.9098    2.3581   -4.7670 H       1  UNL1        0.0618
     41 H           1.5964    0.3604   -3.4836 H       1  UNL1        0.0621
     42 H           5.6721   -0.1016   -0.5983 H       1  UNL1        0.0625
     43 H           7.8200   -0.7394   -1.4746 H       1  UNL1        0.0632
     44 H           6.7589   -4.8888   -1.1348 H       1  UNL1        0.0632
     45 H           4.4995   -4.2580   -0.4173 H       1  UNL1        0.0625
@<TRIPOS>BOND
     1     1     2    1
     2     2     3    1
     3     3     4    1
     4     4     5    1
     5     5     6    1
     6     1     6    1
     7     4     7    1
     8     7     8    1
     9     8     9    1
    10     9    10   ar
    11    10    11   ar
    12    11    12   ar
    13    12    13   ar
    14    13    14   ar
    15     9    14   ar
    16     7    15   am
    17    15    16    2
    18    15    17    1
    19    17    18   ar
    20    18    19   ar
    21    19    20   ar
    22    20    21   ar
    23    21    22   ar
    24    17    22   ar
    25    20    23    1
    26     1    24    1
    27     1    25    1
    28     2    26    1
    29     2    27    1
    30     3    28    1
    31     3    29    1
    32     4    30    1
    33     5    31    1
    34     5    32    1
    35     6    33    1
    36     6    34    1
    37     8    35    1
    38     8    36    1
    39    10    37    1
    40    11    38    1
    41    12    39    1
    42    13    40    1
    43    14    41    1
    44    18    42    1
    45    19    43    1
    46    21    44    1
    47    22    45    1
